26			 
 
S	-0.3691981802577172	-0.18563773244951753	0.3734858065763174
O	-0.03310053447947692	-1.2907390429939207	1.146194121073426
O	0.14921024311677877	0.341405182122849	-1.808360561047385
O	-0.27811466540055363	-0.2610464405034183	0.37277484632289876
O	0.0012258637510454973	0.7006909032511202	1.615083402467308
O	0.1106701784301204	-0.6793394455375712	-1.2562969127136332
O	-0.2844794633933529	-0.1096699903201098	0.41287947366511346
O	-0.4305971273388416	-0.22114063796342015	0.10034700506080277
O	-0.2327137687595953	0.0066003466270304345	0.06538238805224596
O	-0.3993719983448176	-0.3522231122550205	1.6447897600479322
N	0.5671088755500755	1.1791754882606524	-1.1870568213824622
H	0.6086294926066632	1.1943191649788623	-1.1007565922113598
H	0.4523920834078034	1.0038836940609928	-1.416133843486937
H	0.3693130240906731	0.6414013390843466	-1.871611590052078
H	-0.3914088263723947	-0.5024875348725475	1.7261397817891564
H	-0.39706639404804867	-0.4722500216923329	1.7702486369319257
H	-0.11457732993219527	-0.24291558873866376	1.647153655428747
H	-0.04359429843583698	0.8808345073728708	1.805423723480778
H	0.05892613078017686	-0.05945884724604871	-2.075283242961875
H	-0.026244327439443306	0.37507209884176607	-1.7253939855591602
H	0.2292745517577283	0.6346190413003954	1.2673007768867428
H	0.11751374049939249	-0.5754720074023769	-1.0449947155288655
H	0.24323964657188019	-1.0042859226433898	-1.2065542892313161
H	-0.14118863400456783	-1.0333816973381094	0.9978189914237917
H	-0.3329642979794833	-1.2084456196679343	0.9328521485843142
H	0.5671160155027674	1.2404918760371364	-1.1854319632850896
