26			 
 
S	0.4942306155504391	-1.1437018370724874	1.016092697653054
O	-0.10725646766199687	0.6432079134044275	0.5236900297816544
O	0.5227483370822594	0.8032298400438642	-0.9381284774317161
O	0.35457863100601517	-0.8916251402646033	0.47363731044315455
O	-0.7958229972511397	0.2756698560497466	0.5527904178062105
O	0.9499273937106214	0.7337997492433332	-0.164017263787963
O	-1.2525709225316994	-0.043029719510129405	-0.3469099152166227
O	0.6371624962091426	-1.3855201873320557	1.3519926292893847
O	0.6639202126328294	-0.9602837783782426	0.9467429879264648
O	0.5199537579352076	-1.2840002253839315	1.0093301578021423
N	-0.525632539766534	0.17017359422114745	-1.3669116688676275
H	-0.16205093389940187	0.31369013186536177	-1.4063039652285507
H	0.794537339144381	0.7221603818530433	-1.1729376176002015
H	-0.4810341960562263	0.24781896278862936	-0.9533567797069143
H	-1.1987693445104457	-0.3026235681252073	-0.2844746566541152
H	-1.2414867525489925	-0.31279500596487025	-0.2613819807663118
H	-0.5676700289149008	0.22410840080593283	-0.8911580177948311
H	-0.5687954658261221	0.18191251803440184	0.29065649197346427
H	0.6712572015644899	0.8884764986015131	-0.7024630702732252
H	-0.5578801366626898	0.17812654128689717	0.2049049602759221
H	0.503093946872503	0.5692658361914404	0.19130156690074726
H	0.8782239897813523	0.7327261773264188	0.11512200489998103
H	-0.17102437655669805	0.790096360485266	0.9082269168570144
H	0.5374925223297842	-0.1448628667130018	0.8720339796278646
H	0.5913024959667262	-1.1193153768902206	1.364119688008465
H	-0.4884347776486543	0.11329494339417881	-1.332598425709513
