26			 
 
S	0.47369235406905186	-0.6558423515780413	-0.547375535670151
O	0.6564866199560502	1.2355523585481438	0.2941318496908182
O	-0.9148593488871254	-0.38556791308134325	0.7331042562585579
O	0.34151571283197274	-0.5474280797744382	-0.5695094967726408
O	1.086688714009851	0.4490377169856757	0.6006169284137154
O	0.1311600669303996	0.8011082240597387	1.0372544826361596
O	0.6512602805501803	-0.7832558720289335	-0.7142721166189832
O	0.4160877062656312	-0.9570097191475678	-0.7252865504720365
O	0.41530515375079174	-0.4473336426771231	-0.3599448831839477
O	0.3793239708185637	0.5431799172631917	-0.4480417829713709
N	-1.7358813909514037	-0.6897626496862075	-0.5222165597709039
H	-1.741187869862492	-0.8354442999651986	-0.7725117558957977
H	-1.4394513162068088	-0.7379864644694544	-0.33049792185323495
H	-1.2675040656849874	-0.492610221138216	0.27967753835615017
H	0.3604378831328738	1.009735196055427	-0.23154815617581906
H	0.31271980345952916	0.9841236437497051	-0.1728475121153179
H	-0.09573889805372172	0.9040518972753935	-0.28750754781399546
H	0.8043893787323544	0.621511066926018	0.38385708976644817
H	-0.6872866982495148	-0.5733430421049488	0.677927621027565
H	-0.3281687001181411	-0.190883432553393	0.8449295739304564
H	1.1711477450058299	0.22066185903050634	0.3475565929854027
H	0.8342740443059997	0.5063019665644988	0.7683048614769413
H	0.10318945039864115	0.7757564489688993	1.172200970927314
H	0.9699890460996616	1.4658115260487614	0.18288565026472448
H	0.889901074345707	-1.4554642393510762	-1.116683798877966
H	-1.7874907164236309	-0.7648998939296354	-0.5242037974659084
