26			 
 
S	-0.3294663221100079	0.9405717072647892	0.6325906100241829
O	1.23856620219546	-1.2512820337892931	-0.5178117293545096
O	0.08005407691761177	-0.3622525246315913	-1.6640079237320426
O	0.0020254349512642956	0.9789193684862731	0.3618721339838069
O	-1.7414006456736564	0.4255668766987373	-0.19831689189356577
O	-0.11205496481926776	-1.440293100731251	0.05954698186670142
O	-0.2932513453917381	0.7365907756728294	1.1244014736182513
O	-0.30631608074560135	0.8377071749430512	0.5897735852956637
O	-1.7898951610496021	-0.7785259518034271	-0.4701031135748691
O	-0.3171735543454928	1.2611264053291094	0.6975606201622779
N	1.8796757737229572	0.9436304107914992	0.8097647415633236
H	-1.5330237884500628	-1.5341799252531352	-1.1311400545828907
H	-0.06331340948893746	-0.06619088466145108	-1.2204368068312987
H	1.6966921410907339	0.9564861800047748	1.0726794107416389
H	2.0683718857844555	1.2629702061881336	0.6962717688884033
H	1.9993724789454688	1.0154070935495332	0.6098979196809696
H	-0.23595331548218734	-0.5118800195468663	-1.5205669094825314
H	-0.35056157007243766	-0.30946222057861056	-1.278446662035017
H	0.006082327463273383	-1.4045915897860357	-0.042094676672541
H	-0.22365005745004088	-1.0509486361480729	0.41300916689979694
H	-0.13294010660319522	-1.2390102710693496	0.5097846062750135
H	-1.8632371827569612	-0.11487563611811491	0.059452088170663796
H	-1.8975444168638067	0.630621512239299	0.06292340729774339
H	-1.6348903721399888	0.12809153983963695	0.08848566883123785
H	1.8563507955937815	-1.0510704505543897	-0.6864032806144222
H	1.9974811766544671	0.996873993850277	0.9413138656723966
