26			 
 
S	-0.3420350236579231	-0.9473053398457778	-0.7790563025098175
O	0.1313156317316455	1.0041642677792921	0.17618377528335957
O	0.8340698875889319	1.0427354419903896	0.8301730496774424
O	-0.3798852818014398	-0.7523825500528897	-0.5726994840256534
O	0.7076970864185437	-0.49007856538918987	0.597525657252299
O	0.0232983500347546	0.9246468485248025	1.5689681752248534
O	-0.5973583654290376	0.8044291624708847	0.6977117750432635
O	-0.4654948125571466	-1.3745998028438289	-1.2066164438676035
O	-0.2942897077707673	-0.702846435653271	-0.6163818463182639
O	-0.22059011605645992	-0.8993123111592526	-0.456402788654465
N	-0.17153428287931782	-0.799484097416704	-1.6114624274980114
H	-0.359830826333031	-0.9818466856876822	-1.5902520284315822
H	0.5209779279168734	0.6931768942147886	0.11270893993698865
H	0.011084992657173276	-0.703011901711005	-1.5354917371180734
H	-0.4833658943571333	0.743428299935651	0.859946981231512
H	-0.4594960540803417	0.7183064931123881	0.9485520477146712
H	-0.3194481462203449	0.669308645703963	0.6880806291888969
H	0.7991817380810003	-0.4668781455675578	0.6148709920974271
H	0.721256868282111	0.9146931409680085	0.7046922637470491
H	0.6170404248335959	0.5945614809238509	0.4704039178079943
H	0.5110258762982802	-0.3132371598275361	1.0617747963640694
H	-0.06956192040470785	0.7260118557493339	1.5335837121806297
H	0.08243839791852618	1.5084349092845784	0.5089327054155747
H	0.016075235149846455	0.5461903702295656	0.03902859942372692
H	-0.6298983365044432	-1.614686155882412	-1.3748826615638485
H	-0.182673649086641	-0.844418660000377	-1.6698922970929402
