26			 
 
S	0.34443400721774753	0.9266806085817284	0.567172632575602
O	-0.06563865882059594	-1.2346190458544697	0.49970274984125795
O	-1.3382092518255133	-1.0533809672471532	0.6603755272204523
O	0.38791280904826947	0.814958644856765	0.20133620849489772
O	-0.7116550062405465	-0.356845765686663	-1.2283790697758536
O	0.05895851391871753	-1.0717224203774476	-0.7095660246221124
O	-1.2239537468306372	-0.6909892572904786	-0.11353282414009044
O	0.7352022953752513	1.47178730870223	0.7580395568516815
O	0.23048162749978848	0.43884108892163876	0.698651306962275
O	0.08142629600573777	0.6640692859969817	0.4809894294937407
N	1.6255880529915685	1.8156370089136067	-0.27326095503889314
H	1.5878540141330908	1.7376154943951663	-0.2693010433822357
H	-0.6177306851216474	-0.45923197517545644	0.8999287136792543
H	1.6718374978203165	1.710839258990682	-0.26365591383757486
H	-1.240004778900842	-0.5685083158503851	-0.24332153781485558
H	-1.3217015460932955	-0.6441126637009952	-0.2816043662194563
H	-0.9813819167779418	-0.5856307726542129	-0.4091926152721166
H	-0.733389199486271	-0.6023049721158111	-1.1699326168137458
H	-0.8729238649086764	-0.8110957030329733	0.5602921721758651
H	-0.7110029266141578	-0.6480238348746216	-0.8052177362113176
H	0.001095132212471542	-0.820569681954822	-0.8042459686547706
H	0.14155621174439498	-1.1219107185843893	-0.6254186096794069
H	-9.278123843282915e-05	-1.377195776732518	0.52031435030999
H	0.2675275173042647	-0.987522913716809	0.7007082831600475
H	0.9182192260346008	1.5877090708630095	0.9330956326706337
H	1.7655911615390305	1.8655270145326106	-0.28397728141859546
