26			 
 
S	0.3514838267874945	0.3225759953341063	1.2247360796805766
O	0.49719466723085703	-1.0823808688316927	-0.13237447051966778
O	1.2806505524403624	-0.32755166271942787	-0.8297947301837024
O	0.26016028323316853	0.19085486272001126	0.7032406443843449
O	0.05928269972189654	0.9039639975398754	-0.5369393459882885
O	0.39250694627730515	0.09609025588250139	-1.5022734849374961
O	-0.10901032862323765	-0.9065015152910328	-0.7802761525950508
O	0.3718819036725604	0.33600962303247806	1.731809638667238
O	0.182856490598006	0.3471009851152872	1.1291008070118795
O	0.17641377284381188	0.5134852271071761	1.4840019957180028
N	-1.8697331766478478	0.3824637202338121	0.5036763210219739
H	-1.836503084938844	0.24325770679623573	0.5730974640115142
H	0.49411412737138827	-0.15131653036633652	-0.12584287030801247
H	-1.4925708750637856	0.3375624509868066	0.5473098385869858
H	-0.1772215985730804	-0.7036198598958083	-0.7331532169671398
H	-0.24426991511634988	-0.674163113018358	-0.7340947807849687
H	-0.26879525570977925	-0.5383505534682165	-0.5756785828704662
H	0.1475331778034865	0.960726291600536	-0.5073826353263491
H	1.1831138645128774	-0.3412044348028005	-0.6055398555921089
H	0.8322772619101183	-0.08041003124874233	-0.6816418136896376
H	0.0024307900406813155	1.1431255470789445	-0.8065442026238677
H	0.31262049782874346	0.13168654668296897	-1.4440898080617273
H	0.6690714675926575	-1.333196303831124	-0.18489967207588984
H	0.11117518445369923	-0.052112380148048296	0.3802670585245845
H	0.6302905827012392	-0.1441808260615055	1.3097890808386863
H	-1.956953862112984	0.42608486951474445	0.5934966939543598
