26			 
 
S	0.2942098503044519	-1.7532768027420815	0.30016639430034436
O	0.33196377546269884	1.0444002656807119	-0.5950263537090634
O	-0.5441257499728764	0.6275678704362397	0.9866648088140313
O	0.28837814555470437	-1.5353536740441647	0.04478099980446769
O	-0.6178858365533942	1.2268979915250073	-0.08167787330712185
O	-0.6897535102109418	0.33221375204887554	-0.8470809107781545
O	-0.9524344899659918	0.03072614610198327	-0.8338266291536435
O	0.3179712041166438	-2.5758975323219926	0.44282407039147376
O	0.12784498271637362	-1.254537985083881	0.3149604883638179
O	0.55071215768751	-1.3641263569835762	0.04690891657438813
N	1.1990324799444416	0.497890040649063	0.7372442332969533
H	1.0689421031733617	0.3820956459958595	0.6113979479322639
H	0.21941904980177082	0.5719108793105008	1.0532674966546887
H	0.8796945106408329	0.36371955405929784	0.7663798326597808
H	-0.10797164391904711	0.25597116311670065	-1.0872000010229241
H	-0.1558573708167819	0.22352312845715322	-1.0689181248750033
H	0.01098177810554829	0.3384145889428407	-0.8849485101673329
H	-0.3738614091421652	1.2188532605796523	0.0024438388071780365
H	-0.638670719950503	0.44409929931975556	0.9345218379544681
H	-0.6214491856094189	0.5295259698720235	0.6622407094400687
H	-0.5168383890702516	1.1815489894502706	-0.3453881479671503
H	-1.0781594709567817	0.12421309679345308	-0.8610671522663678
H	-1.0086543056531967	0.3603165521178915	-0.6731349525900844
H	0.3594564210751372	1.0402713109820212	-0.8668170287878019
H	0.33486532321030443	-2.7892491983654746	0.3466399155358714
H	1.3221903001276876	0.4782820440019634	0.894644194143348
