26			 
 
S	0.5111466759851453	0.8365908480447184	0.46943403640458087
O	-0.045732920307158254	0.7207064780397983	-0.43137910403694985
O	0.8601959975331551	0.045202474380408184	-1.2764292447812957
O	0.44053126818577026	0.46412747031678003	0.2899105023986317
O	-0.6935599191750377	1.244062618853729	-0.21659205264307252
O	-0.08872077257770704	-0.6702541489342331	-0.5782899139547915
O	-0.8542234805194726	-0.6620854739070452	-1.1498494767384004
O	0.6809267596693385	0.9248549567807456	0.6649992066775043
O	0.6423270338174379	0.8048101792040052	0.5982066723667687
O	0.5506392921582365	0.5319973349685287	1.1114782295038794
N	-0.44023769663343526	-1.4690088995099264	1.3420853529658994
H	-0.27082763574566976	-1.8153194096415004	1.1451916808880995
H	0.669196182625892	-0.21852753365468763	-0.682955071173073
H	-0.21586225037310608	-1.0268180539492333	0.9541328403427956
H	-0.19206930041353085	-1.1053318636348555	0.5350566281730171
H	-0.18950679767494932	-1.093329902476273	0.5595302349418447
H	0.2222602629207907	-1.1133903404894654	0.6664075980561694
H	-0.23814530677223245	0.30959880192718076	-0.11901645665140226
H	0.3333349293632201	-0.03401498586904033	-1.406510673455128
H	0.5740333345552947	0.8011942572807929	-0.39186861259390515
H	-0.9097228998329429	-0.027417452015183863	-0.5057375759819517
H	-0.7149463576951985	0.3405328179487678	-0.3939034562879007
H	0.08298498403215927	2.120615181923488	-0.44384566371754075
H	0.03632859470029557	1.9322274770133157	-0.3073850986970134
H	-0.2532168863869016	-0.3833787131998101	-1.8751835049339722
H	-0.4971330912028521	-1.4576441192600913	1.4425129229932827
