26			 
 
S	0.4456587179718674	-0.6637909465387661	-0.5894434110571383
O	0.6674097747522134	1.236502673461896	0.27276089778989165
O	-0.915131876477714	-0.36759788449407116	0.7027015835069886
O	0.3153196054413685	-0.5559730748031722	-0.6023257493536648
O	1.1202217934977718	0.4672342770529603	0.5959071227413686
O	0.14096311112570614	0.8245501593607503	1.0941353882207752
O	0.6426064871861897	-0.7970999361834575	-0.7303328248128235
O	0.366025049198757	-0.9683714488056714	-0.7707421909635276
O	0.402611901223326	-0.45112119971034315	-0.38854891436425315
O	0.3471799968546384	0.5465611439737826	-0.4663504935749761
N	-1.7133353222736352	-0.7176627535869626	-0.46808438576788897
H	-1.7383167075619852	-0.8671586702686155	-0.7490764737836568
H	-1.426479136567076	-0.7396528959353635	-0.3443870372339423
H	-1.2520393541887889	-0.5111053039397406	0.33870112340232694
H	0.36637303886559114	1.0096421945987968	-0.20577947214184283
H	0.31790501045233643	0.982460529971842	-0.14663392584011425
H	-0.10121955290675028	0.9010335298814445	-0.2790042567457409
H	0.8213409347136457	0.653480378916658	0.3749914012937755
H	-0.6968448048515291	-0.5546318797073521	0.654862391346065
H	-0.3475978087572466	-0.16030340920704025	0.8389778686785667
H	1.1974455838254174	0.25413419990689595	0.35482907035371597
H	0.8634953576170213	0.5234197187045425	0.8219090213740654
H	0.09590913310821421	0.7430377096231859	1.2114331446718987
H	0.9902068376943385	1.4704292931690368	0.15993373354000262
H	0.8536587846017826	-1.464109809370869	-1.2116671054193897
H	-1.7633665543226973	-0.7939065960771768	-0.46876650578374973
