26			 
 
S	-0.4029658926417883	-0.13544496031932762	0.3839281903262915
O	0.020735900572186522	-1.2801052575982568	1.056352165175796
O	0.17848727359748934	0.2878236817204038	-1.686399849535428
O	-0.2974081677523016	-0.21082261409491385	0.37903667615863895
O	0.021346037282297725	0.6657367499363067	1.5395411968904353
O	0.07617435819527085	-0.7073078563427957	-1.1088019112599392
O	-0.24363469080359154	-0.15195399695878042	0.421986964626336
O	-0.4742117590952703	-0.1608028369882038	0.1568227307244766
O	-0.2573088999268276	0.015097483768696199	0.07606893493434147
O	-0.4268483934618649	-0.2723765576004577	1.5729450450794655
N	0.531958245279641	1.200861755351443	-1.2616031075518206
H	0.5515475160242477	1.1719470869527842	-1.1412795424522162
H	0.4438524256067828	0.9801779978524057	-1.411042035554723
H	0.34555109765690634	0.6664450716374192	-1.8447583615564682
H	-0.3228418497436935	-0.48132506397030284	1.6148511503658989
H	-0.33091213422954757	-0.4556110052664839	1.6599334327749506
H	-0.06856201706309384	-0.24326088658098927	1.527046188041966
H	0.00035381572503179193	0.8447138035575212	1.7073147759439742
H	0.08612390621690956	-0.10570283114053314	-1.9001174048431746
H	-0.005037985340394754	0.2772399908545305	-1.5297733533104754
H	0.21463789025550783	0.5685957748871628	1.2294723542714703
H	0.08156934717289706	-0.6124144993214693	-0.9137953796529916
H	0.24440257535323728	-1.0304318159723933	-1.0865432453489487
H	-0.11874154291116977	-0.992714201377593	0.9003860502538923
H	-0.37577573050168867	-1.1032047023289606	0.9259602747941071
H	0.5275086744053987	1.2648396896371152	-1.267531938975838
