26			 
 
S	-0.5673289977844019	0.01602842535128302	0.5466451346775352
O	-0.04967298713141613	-0.39472587862214115	0.29770539502416055
O	0.5116306442099198	0.04775404681751221	-0.17357640455951787
O	-0.5594726732357219	-0.07445629152870954	0.7659784232779042
O	-0.08300472115805124	0.22626188789371898	-0.35311436142701197
O	-0.8830786795168101	0.4329857847872503	-1.311095665484613
O	-0.11475019442389606	0.5114192170873725	-1.197567136376408
O	-0.792161608154855	-0.08461310345787859	0.6274966696511243
O	-0.6478741344279447	-0.11039782281505442	0.51106479562346
O	-0.5193945225732586	0.012313421137916308	0.6042050099300595
N	1.6002849593790103	-0.3589210477110948	0.7920016053653907
H	0.29787099321303456	-0.7364459661329059	1.2662008843269887
H	1.2196042211393578	-0.3793973137552851	0.4090357850546372
H	1.2812274657842915	-0.28334846994830676	0.6009034066531089
H	0.5008644585746528	0.7066851727148035	-0.405765858816378
H	0.4724890932043072	0.6638557355382492	-0.3767413799371463
H	-0.3796743914286399	-0.012293045644274917	0.5144849849320126
H	0.036420813789777684	-0.006131243178139387	-0.4037453820791318
H	0.11233750118103994	-0.2407886896503821	-0.25709657340905123
H	-0.29683029146545997	0.09873477950029158	-1.0558626457173124
H	-0.2807893110312529	0.21055888998041133	-1.1384087795476459
H	-0.9307605981777405	0.3487766047191266	-1.2668001002511655
H	-0.787066980244614	0.3363794484257705	-0.9180007677048941
H	-0.3819810578065925	0.04166018791454811	0.2425344478526721
H	-0.42788239085439833	-0.5771990211235837	0.8093612487896311
H	1.6689933891041657	-0.3946957083808219	0.8701572642167202
