26			 
 
S	-0.3173389369211217	-0.9181035843186952	-0.7664205393856995
O	0.10823775584407336	1.0263896659691385	0.11764768195824554
O	0.904812287749387	1.0788896800373964	0.8545010509726623
O	-0.36294213674113046	-0.7225776916771154	-0.5681630981737484
O	0.787113833746525	-0.5218382474215926	0.584080596715379
O	0.028372137983737097	0.9516918016757407	1.6008896231395502
O	-0.6552690811613803	0.8454420553075657	0.6770801832256218
O	-0.4497332907861365	-1.345184412482659	-1.1961259846446668
O	-0.27876892761072386	-0.6589201379289104	-0.6058456740563095
O	-0.2011411648046478	-0.8740782359361664	-0.4356630514313529
N	-0.24330147728102858	-0.9278799641312703	-1.6029226340770695
H	-0.40158611892226637	-1.0629457148702761	-1.605527574741984
H	0.5487435154717979	0.6912987049023905	0.17575445803953643
H	-0.04752608748710391	-0.8197831108614576	-1.5547013059082262
H	-0.5446800920859602	0.7542272962934773	0.847674917577333
H	-0.5215194252626485	0.7285011158909352	0.935051019291566
H	-0.34194366690479827	0.7029246548714185	0.6530351878533608
H	0.8713048397398626	-0.48632880871154327	0.6247593918346916
H	0.7629819158040685	0.9440567512943606	0.7201207948056624
H	0.6605404448963393	0.583496682290449	0.4776090199091746
H	0.5434922609930746	-0.3093107120010719	1.0834553987806033
H	-0.056511176465429865	0.7752917156566941	1.56424643497755
H	0.08057124312679685	1.546261923839596	0.4643034242964872
H	0.007322026968880742	0.5757019171074417	0.0007354817868671509
H	-0.6248240666876378	-1.5771900238396273	-1.3859397264362219
H	-0.25640661342267546	-0.9800333211188818	-1.6596350757959313
