26			 
 
S	-0.4127059809351143	-0.14583079040763994	0.37802072574235224
O	0.031417646602935376	-1.2588439568777177	1.0373653644477328
O	0.17909026351062363	0.2734290240006987	-1.675080623296831
O	-0.3080856185436282	-0.21944784011772378	0.3649657978358535
O	0.031165895712785774	0.6523008531313542	1.5474136793324786
O	0.07958093135632979	-0.6969145615227987	-1.112424414914914
O	-0.25704413311026286	-0.15682642579376502	0.41739334220751656
O	-0.49386202050572053	-0.1752910961040674	0.1467701503891054
O	-0.2692112629388389	0.012938946137877397	0.07577337398176132
O	-0.43224257605816946	-0.26963781024999006	1.581259666669287
N	0.547150995118745	1.2056416953798155	-1.2492921337226721
H	0.5521891373021375	1.1721694506259843	-1.140567132723964
H	0.449853688822718	0.9632739212229277	-1.3869052898322316
H	0.35638600769116835	0.6726584602427931	-1.8389580623074808
H	-0.32061887895074664	-0.45961087828469926	1.6119166745449078
H	-0.3292407344160501	-0.4349795537092455	1.6572687157912316
H	-0.0751454794802763	-0.22993318199355622	1.5189954779835126
H	0.003928486974928466	0.8363526819470828	1.7229406534893308
H	0.0835548186663908	-0.11999527789925807	-1.8938935208218355
H	-0.007019745721046645	0.2684983951653713	-1.5296701549259513
H	0.21713500278421188	0.5682332187953747	1.2421041924953549
H	0.08499921304600767	-0.605780726172906	-0.9193069811114375
H	0.25094135321650646	-1.031429731336192	-1.0950691648247453
H	-0.11317108002096556	-0.9686242354212949	0.8978582556652683
H	-0.39343720516257713	-1.1214104402032152	0.8953099328720577
H	0.5443912749152408	1.2690598597423228	-1.2541885246410551
