26			 
 
S	0.4281728712820018	-1.2493790742094495	0.9843014097460876
O	-0.10247760088499447	0.6220774304504304	0.5823333604527459
O	0.5998851727846398	0.7911224812345288	-1.0528623986697587
O	0.3047312800316711	-0.9612330749756802	0.4081415000843757
O	-0.9184917959948626	0.1892030539190636	0.5437974541186616
O	1.1246988006617507	0.7893736861921836	-0.0899337469195448
O	-1.3815129371296275	-0.09864294802950198	-0.33914652840765785
O	0.5289800471670988	-1.4909639305207698	1.3217009762803047
O	0.6355030269840729	-1.0300160888148198	0.946995012319909
O	0.466074916904826	-1.3729632966323746	1.0304414984976162
N	-0.4364467571596178	0.37358605841057774	-1.3665810355765664
H	-0.08858621912901624	0.5184180710250441	-1.4719034147598176
H	0.9640462482069105	0.8146458319502898	-1.2580297943063534
H	-0.44419138052879525	0.4112863801134374	-0.9400959782986621
H	-1.2723797711206704	-0.33387210600035466	-0.2337733321061063
H	-1.3168569676685236	-0.34787504832640825	-0.213536643047202
H	-0.5848332601419663	0.2651669141187373	-0.9494839118640213
H	-0.6734125819411231	0.1311896733466667	0.27301068809108114
H	0.7323799539080654	0.8862789516730533	-0.7625459573291897
H	-0.7132387017821099	0.09528494005239341	0.2180221078692885
H	0.5602953731500515	0.5828126620714515	0.22745985135491653
H	1.0489385960795417	0.8007610328632256	0.17687946325832382
H	-0.1763984235475745	0.748318650369387	1.042925472788223
H	0.570966489524502	-0.21266982252777436	0.9702243474024074
H	0.5330969153566134	-1.2427545547539731	1.2831885039167388
H	-0.3889432950792544	0.320844127003339	-1.331528904669866
