26			 
 
S	-0.15077527109376418	-0.02869330181601314	-0.3141287589964855
O	-1.0268682767689816	0.004133715836139626	-1.8271389428300062
O	-0.3535678135005694	1.1029226560151604	-0.3451826717431716
O	-0.12440930194775213	-0.017293458824356844	-0.654423640533283
O	-0.3765635684338644	-0.8410816915805788	0.9751924254228658
O	1.341091347054757	-0.2570135693791282	0.3227900737630122
O	-1.231344647751479	-0.2180992058454455	-0.9995105679425641
O	0.08824785127683915	0.1470823994864358	-0.14710939521985217
O	0.08354660713505405	0.01811748393390672	-0.030352697047846655
O	-0.05203031515851297	-0.303105740270967	-0.44369777184768416
N	1.0010188638193949	0.23771733891806154	1.8872767520164744
H	0.7420545578139089	0.2695211513277214	1.512872972206654
H	0.8940986944560765	0.410494582068298	1.4820212548008553
H	0.7751389679160295	0.4316058810905927	1.6665449543146924
H	-0.7579870325328625	0.000641480747342979	-1.8525965352621834
H	-0.8207800578808475	-0.004520958163221539	-1.7805492622587418
H	-0.5434193104128475	0.0071709485614837466	-1.475557594342818
H	-0.43274537847785594	-0.7100306208779484	0.7943261089679396
H	-0.21064271154086506	1.1154891875872959	-0.42418238866616514
H	-0.4088947159308415	1.0508065253841898	-0.5012819900648366
H	-0.16305336065006343	-0.8144410325475147	0.968468788967575
H	1.438598730202768	-0.6274585296203478	0.9728034023467463
H	1.3143267153551705	-0.4902439473392517	0.3198739216344705
H	-0.9396100578392762	-0.3040193217622591	-0.9419234135630039
H	-1.1352270865256413	-0.3740157915561532	-1.1858155786734783
H	1.0497965714431587	0.1943138185789217	2.021280555110155
