26			 
 
S	0.8625388729230893	-0.3415686824901795	-0.39550588359855376
O	-0.07801664559521249	-0.33420781538659533	-0.028009309742535723
O	-0.17289443602262805	-0.12395172617471753	-0.057283356748125826
O	0.7529081146210869	-0.24359017453101578	-0.2910650042428766
O	-0.09026482607064762	-0.5638814409927766	-0.17511803724805614
O	-0.447345085739843	-0.22157916595228244	0.08191909184933525
O	-0.01183012340302217	-0.08985777914108775	0.06775573576227023
O	1.1443479763208226	-0.39870392041631897	-0.4786332932759999
O	0.6181249351947878	-0.3348007325003734	-0.326839404092891
O	0.6638172825321921	-0.1929550282197676	-0.23013512569213673
N	-0.731462084586758	1.4305619495337356	0.5934025608962213
H	-0.4520395978742362	0.9544568981033713	0.3717053308830173
H	-0.41713611611798085	0.5263510126385993	0.18693231304994012
H	-0.5029573054855327	1.0511912969662494	0.4890931079311349
H	-0.29922865664302767	0.3378938582579354	0.39305787950548116
H	-0.33323095182426443	0.32739923689671213	0.4108008183296978
H	-0.20608688662784383	0.09111817814068826	0.2841742175627132
H	0.09356282993400672	-0.5061975304200347	-0.26175143465252976
H	-0.22353727294491432	-0.21699489528938945	-0.11592795279070023
H	-0.13414658911612556	-0.4129954019605059	-0.3808727441957904
H	-0.042533321097602945	-0.4645349724225239	-0.11250569368791928
H	-0.3523443894619841	-0.37181565766905106	0.026328973213705233
H	-0.32128801709940796	-0.42548468443555537	0.16068423440415008
H	0.1382743203878217	-0.27686988726915673	-0.17890342066027518
H	1.3066126893597743	-0.6774642791285275	-0.6425984127127966
H	-0.7638447156579404	1.4784813439625653	0.6092948101589715
