26			 
 
S	0.0933393143622289	-0.07127656972086309	-0.7097078071747489
O	1.6407737116674896	1.0255659347506818	0.44529489025948416
O	0.10786623595952372	-0.6319011882573126	1.5976302616305151
O	0.007639680366930905	-0.21408210700296282	-0.7292213163058254
O	-0.5974931489137845	-1.3766441701509897	-0.18066333126550793
O	-0.017151550943474023	0.9442302083498324	0.5543695692664796
O	-0.00955763711903454	-0.0011998009062775933	-0.2785174243582247
O	0.04299840233890105	0.0411529201356681	-0.4712216167325337
O	-0.16591467825090975	0.5373366620807594	1.6401527882412084
O	0.1958707820360539	-0.07480546184678519	-0.7033455767979528
N	-0.7668686762006903	-0.2856906748186202	-2.1794512989829076
H	-0.23995563104423817	0.7389831814135769	2.527793274646733
H	0.025900403148963712	-0.7201061490294833	1.2299480292386091
H	-0.7649706933790316	-0.15900932633609766	-2.2020608117765477
H	-0.5139257707409425	-0.3189478086818731	-2.516780506681156
H	-0.5505742752281878	-0.30363253215836106	-2.480620123250409
H	0.11976306597171793	-0.5450449763720366	1.8092561312168398
H	0.017218414683513705	-0.7742276237774401	1.2471544191993993
H	0.12971500225753496	1.1068507932560676	1.415212452352188
H	-0.09727902789848124	1.264087353615839	0.9233849705914682
H	0.09903811691760289	1.0368073226710244	1.2092539321759948
H	-0.555650071083647	-0.6309377730352148	0.1978217549998747
H	-0.8059424239049552	-1.6962289331933185	-0.135595956878959
H	1.5176664061791716	0.6160116265214796	0.13887625087369515
H	1.7865082490020967	0.8088572499439688	-0.10091914419265952
H	-0.6990141999157753	-0.3161481580794524	-2.2480438101131797
