26			 
 
S	-0.9551514794122544	-0.34714242550063296	0.3299413526290329
O	-0.35476247188647825	-0.21218776935407035	0.21728198431134288
O	-0.17793562601118385	-0.08442580548528464	0.1817744605126804
O	-0.7740594218043866	-0.3234058622184231	0.4535590726372946
O	-0.7933891288977966	-0.4868614786641933	0.2589994769852904
O	0.9094670767214195	-0.12313107623507799	-0.18535761480732738
O	0.4504674616973128	0.5883377664945746	0.020803488445709117
O	-0.6412152286664099	-0.33618882214446566	0.6235982640055396
O	-0.28461476808499525	-0.6298265643318611	0.3011265541974548
O	-0.3479980829523947	-0.4501895275483465	-0.15981470601879993
N	0.36664362191092725	1.089068783854577	-0.9019534860792534
H	0.4210621513212764	0.42174536469212476	0.14326403512325844
H	0.1418829119949524	0.3390141233619481	-0.49811611851770954
H	0.4614335870210614	0.8140424151849491	-0.27282138072638784
H	0.4236872014200312	0.7368086526871738	-0.6945814937965354
H	0.4281561923516435	0.7642739409494895	-0.5910767840721582
H	0.4826139429262533	0.19003530859380205	0.25494726133396656
H	-0.1181099369106379	-0.7349962938889769	-0.11914055734312301
H	0.5107258158293414	-0.17652203734731992	0.1806089878661901
H	0.6906485935179035	-0.2903671509870682	0.18155259898589565
H	0.3394171868298025	-0.9135805378424124	-0.2338018330545527
H	0.552689321474666	-0.4872194256217134	0.14720061761764153
H	0.4283072216778166	0.7289039273562362	0.3061962835253252
H	-0.4993092662260818	-0.62058479689389	0.22102525647794027
H	-1.9556768104672895	-0.5766845113869461	0.7740216801368169
H	0.29501993463008935	1.1210838020393443	-0.9392374000904964
