26			 
 
S	0.29008678359645296	0.28169671836140137	1.2138689838287366
O	0.5051847363468073	-1.1380554293174594	-0.13402578018403877
O	1.3295207308996515	-0.35886168871987806	-0.8518198642144255
O	0.21532834177903384	0.16338251490065955	0.6675442605575518
O	0.08580350441005041	0.9653298896574856	-0.5520554408510007
O	0.44316273565851166	0.12862703758009628	-1.5068972451869331
O	-0.07378050252425422	-0.9412130517196842	-0.8040348731615582
O	0.28581102452579016	0.28899494984220314	1.7182360597667623
O	0.11606121127359935	0.32551341593239397	1.131377430157121
O	0.11786667726139158	0.4672959770450902	1.513468084719178
N	-1.8789553267200516	0.45837041014994045	0.5544690917604851
H	-1.8840827191377834	0.3358484415749958	0.5850174265538952
H	0.5387001913226137	-0.15063366585724064	-0.10767275501200903
H	-1.5105253031813564	0.40485995214345627	0.5950822157858405
H	-0.13067936542859818	-0.7732496321466378	-0.7467259283924108
H	-0.19695082449286633	-0.7424475759831256	-0.7489247316037169
H	-0.25208500731461536	-0.5423194233375112	-0.6088632951635198
H	0.15861901311979595	1.0323949200156552	-0.5232923542265903
H	1.2228487602238984	-0.36274285269387746	-0.6121543118380938
H	0.8471425143501137	-0.06788849308477235	-0.7022161949598823
H	0.020923795615875464	1.2261657076950208	-0.8054775466971957
H	0.369013962935128	0.16871395190862093	-1.453372213126367
H	0.7343310092399716	-1.3982717940919334	-0.14853117647480718
H	0.056569988218496584	-0.08863828619905456	0.4255779019845624
H	0.558056780015304	-0.19278504517814934	1.253062260529445
H	-1.9679727117530375	0.5099130514794709	0.6483599953113045
