26			 
 
S	-0.272391517117475	0.6527305423238178	-0.9923990201420458
O	-0.05666332482063871	-0.09330883489173639	0.9392927358831835
O	0.27579433953385957	-0.6426254772199462	0.5545731600307439
O	0.007100621281608552	0.849298016817468	-0.38849792322944177
O	-0.48393627429833436	0.19071091185140052	-0.08456639244108353
O	-1.0695010872067348	0.16599876682968784	0.890401660458793
O	-0.4152023287248452	-0.24792054966591998	0.7175493931734619
O	-0.22770321737486954	0.8498804346492199	-1.1556483177119745
O	-0.29220735097818396	0.5395622348558926	-1.0230386625659418
O	-0.2540417665282526	0.6950550409824537	-1.409903969910392
N	1.5003656422063636	-0.8922102910700478	-0.5142694591568796
H	0.8233733698724837	0.46919631974185977	-0.15279785418133224
H	0.9355663989896692	-0.7186706119362298	-0.16159677898781527
H	1.154512992198542	-0.8252567229082074	-0.2993140669519721
H	0.43012054860412385	-0.7686749512374568	0.3736146597937272
H	0.3955989967390107	-0.8289457631119654	0.36389718156774264
H	0.19161274355664198	0.5865455972358369	0.41941748125113165
H	-0.14263365872955092	0.21506468981240798	-0.20684195872324973
H	-0.16193253598976337	-0.33215771149562134	0.9723895509766165
H	-0.7607273937802108	-0.26826241812637897	0.4977577392390732
H	-0.8760860462502043	-0.04347517448002025	0.3472459847951243
H	-1.0384767432660622	0.3603826596978326	0.7387984409354967
H	-0.7196843229696509	0.3864107725631578	0.5840185672103504
H	-0.2817893933318817	0.16586250930962426	-0.4661599349581913
H	-0.21658817921727946	0.4680160011870487	-0.004803019725734242
H	1.5555194873168297	-0.9332059916775304	-0.5391191964804645
