26			 
 
S	-0.20209360697043702	1.2479468128165079	-0.40997672453758516
O	0.7260411584717918	-1.0689427053431002	0.9506199431903912
O	0.9300122602559604	-0.36653406645970654	0.008576904836972822
O	-0.2359186722826755	1.1990248182897032	-0.320065294900753
O	0.7528014262202861	-0.7278247972857481	-1.0377148504249778
O	0.2318061101303896	-1.0203971658484103	0.02352459396551805
O	-0.17799894847260228	1.5246447074920026	-0.5514635331458735
O	-0.38336462043630554	1.6394518405103817	-0.6674416706964634
O	-0.16342187434182737	0.8052400080543157	-0.2358183482549972
O	-0.4064505495758071	0.3622085079941122	0.4691622316335525
N	-1.1732532062603778	-0.26145195850136355	0.5558438161631111
H	-1.205674750245331	-0.013976651951019999	0.14631303062254378
H	-0.6352995987918397	-0.22112156565803187	0.16149405734527658
H	-0.25709805692964594	-0.44015067314841366	0.29994928277004024
H	-0.2539368919144276	-0.011411719933469178	1.2327250121543274
H	-0.30264964466792943	-0.06655335154003639	1.1998722389412246
H	-0.4275408389784495	-0.14233543156271597	0.8406018118795435
H	0.7132981728206584	-0.753488202784858	-0.9729255675853247
H	0.9033913847153873	-0.2377082615377453	-0.14441938143453703
H	1.2354117285929687	-0.3311811611712533	-0.36408297047567256
H	0.6294837427634751	-0.5730186931020238	-0.8645448647303567
H	0.12570369914011287	-0.8525888095847135	-0.33407888605470487
H	0.27117580890221565	-0.9265826140026482	-0.1027681312476603
H	0.743975881266027	-1.0520177291803783	0.7447918116692192
H	-0.16463432933878594	2.5416800252863765	-1.1701485994331216
H	-1.273765783963366	-0.2529111621256982	0.5419740882857499
