26			 
 
S	0.28743159556843273	0.907084286122371	0.6032660525115464
O	-0.0544154707364628	-1.2053577987310822	0.4694486591042746
O	-1.2117221806582514	-1.0563134794654243	0.667709009669353
O	0.3503803599714257	0.7966400976392451	0.23959395967159655
O	-0.658840294225355	-0.37981927297987167	-1.1529217194103358
O	-0.007554907538457237	-1.0618786129344708	-0.6279094163445718
O	-1.1269977038425787	-0.6864011986887963	-0.15856979431354634
O	0.6386479528391886	1.4332074696998218	0.8088896959557519
O	0.18194889015268778	0.455069027984752	0.7127757945265506
O	0.05321433005728227	0.666142248986581	0.5212658944999966
N	1.559789409001971	1.808594226740617	-0.4006728687747887
H	1.503821237348962	1.7340858003350652	-0.3477977898053957
H	-0.5434625333177129	-0.4236139708045358	0.8299528649873199
H	1.5925098672582707	1.6852402205170893	-0.3608433409472206
H	-1.1000419178418113	-0.551114046229201	-0.27765390238676585
H	-1.1795384391494639	-0.6256409619795106	-0.31203670259887545
H	-0.8745316110587202	-0.5594024053969384	-0.42517602785974185
H	-0.657548269453576	-0.6184358606782	-1.0847463637113681
H	-0.8113595000308258	-0.8232332128649149	0.5939042378265302
H	-0.6631532236464038	-0.6865697183165222	-0.7040014624966946
H	-0.03797139877758866	-0.8271310708155848	-0.7433573044689132
H	0.06341514255467003	-1.0989182254093122	-0.5606388733338857
H	-0.02481294237623531	-1.3244547003875504	0.46352355619635505
H	0.23548495283178333	-0.9183534586657168	0.6603507015553589
H	0.7981777645659575	1.5001352452531993	1.0007929260672719
H	1.6871288904864312	1.8604393709806368	-0.415147785594488
