26			 
 
S	0.11377533489132469	-1.807740965789451	0.27879427768572723
O	0.4106428412683982	0.9489352956686867	-0.6670113210028381
O	-0.3713522116885166	0.5446493004305784	1.1082363496833714
O	0.11479960928827161	-1.5607272952630238	0.05527321158368246
O	-0.5869706418316805	1.2721941465781277	-0.10636146781151415
O	-0.6502656629809147	0.3973511267543053	-0.819985299426393
O	-0.7450042088237039	0.019045796824244232	-0.763273216225175
O	0.08302758040947564	-2.6198622003474825	0.41144172769605974
O	0.01585373673769963	-1.297072618132403	0.26295180656690953
O	0.40207302021647484	-1.4407149524516876	0.06546086975575505
N	1.0934976798926561	0.6286300905496482	0.6717087712301235
H	0.9120888396850064	0.5152676684417056	0.5480376091469283
H	0.3180550396411903	0.5281396312184196	1.1156487139438631
H	0.7932580848618808	0.4784133913571029	0.7076261501583054
H	0.07248134279525739	0.23610858714291774	-0.9981932103934786
H	0.032188952403473886	0.21100197622311317	-0.9754129216375427
H	0.08326654279879989	0.39814786673298874	-0.7883732841656862
H	-0.3682789360427947	1.2593178775841525	0.0021440465463787584
H	-0.4609260375968668	0.360445365446178	1.0138015365898403
H	-0.5208464909017746	0.5878790353665015	0.6365739891849188
H	-0.5437895723972583	1.1514143986931888	-0.36833733621164794
H	-1.0200975179877072	0.14954559204707352	-0.8433255208450613
H	-0.7939090967414774	0.39451273080657834	-0.7837348836028228
H	0.365354977216704	0.8858961451818412	-0.9076661415345879
H	0.05499313701745539	-2.864512674267317	0.3247347708017387
H	1.1960836579363594	0.62373468310673	0.8192407723339334
