26			 
 
S	0.566523352467657	-0.3552332023734778	-0.38988733333725695
O	-0.005226905888408434	-0.4181349622699129	0.005886602011688363
O	-0.0981968452337645	-0.2701947423789062	-0.02074851363417171
O	0.5128975966479462	-0.26181484763430607	-0.2813889112544231
O	-0.0886558820322298	-0.6869551296859693	-0.08014437073767613
O	-0.34191058352372233	-0.29091253941231277	0.18439785075798332
O	-0.0032830876760453487	-0.06352367392418655	0.08409450968548349
O	0.7628225862713001	-0.4001985411549803	-0.47204391195552753
O	0.4267443658889355	-0.35716339812802617	-0.353821803586691
O	0.47201957324777744	-0.15715574503354587	-0.22203505420245218
N	-0.535597671431502	1.7075763799109818	0.3943909921309251
H	-0.3412047791662729	1.077803962828615	0.2052114850950406
H	-0.2785354986262694	0.5430991501075378	0.08400102378477958
H	-0.36044257155871395	1.2607888830584593	0.36714012056682294
H	-0.15830748724167942	0.49663912343818106	0.3890418893777067
H	-0.18794494573788575	0.48161769859760745	0.4157210232866437
H	-0.06849838616142598	0.11890931279914678	0.269627820865887
H	0.1328593955931937	-0.6455707571679499	-0.20500428674043897
H	-0.17542404930351307	-0.4017225629857852	-0.03225073615468565
H	-0.1346117131225469	-0.5646437815953931	-0.26460312607318714
H	-0.0106834710441538	-0.6321917146793323	-0.03931072562311545
H	-0.2805067204594193	-0.4344734522583417	0.11981830712656652
H	-0.19297576096583152	-0.3850993091466757	0.19147229773707525
H	0.1405892648437609	-0.3110381548597839	-0.1338706992821716
H	0.8197565079824068	-0.8186606979958697	-0.6155487404982757
H	-0.5722062838798202	1.768252702059096	0.3998542908910733
