26			 
 
S	0.23573988974173488	0.22762873390710742	1.2003018168194746
O	0.5410618468869575	-1.1514213164582132	-0.14271869246181218
O	1.308334914914371	-0.38837348592699467	-0.869370689051739
O	0.1673697213311803	0.11624319899224894	0.6600992476986107
O	0.03578236275000579	0.9632768960233156	-0.5641235612756427
O	0.4430033521936732	0.11761831353451214	-1.5144247968642124
O	-0.04674415178766836	-0.9584233726091788	-0.8401587959981394
O	0.2178116054582095	0.2281602831877394	1.7099301645918308
O	0.0826679798206451	0.2718877436770275	1.1245520040324053
O	0.07103324766445827	0.4083223006130119	1.501980779668574
N	-1.7955987787373533	0.6076914983077041	0.6237557951481708
H	-1.8316984613549463	0.4292668722061312	0.6609110575834765
H	0.5577434485770616	-0.12381752977451808	-0.1308215712567585
H	-1.4413893194629672	0.5315485164831044	0.6806637900851151
H	-0.08910024445226367	-0.7677056032831108	-0.7716260531219761
H	-0.15386776287058052	-0.7376803499696943	-0.7726401471535372
H	-0.23211770727861533	-0.5622209631679975	-0.6108151122010576
H	0.11153092102855536	1.021272533911867	-0.5431729670802388
H	1.2125777322092661	-0.39342293445665727	-0.6094204540544774
H	0.8244585611733285	-0.0773907889054189	-0.6872549878071457
H	-0.004039746742555637	1.2099776174447983	-0.820513036353698
H	0.3546111399739168	0.14540442430162465	-1.4735500483229904
H	0.7426792376772303	-1.4126351652508062	-0.18284140220969142
H	0.07430446153627358	-0.11646357970634369	0.4225459423022158
H	0.49587093619613576	-0.2561710665385125	1.2278432417183747
H	-1.8820251862103716	0.667427223425698	0.7208684754267892
