26			 
 
S	-0.1753734888685839	5.2712933635313056e-05	-0.30541442535943425
O	-0.9848516220369108	-0.008220089846812412	-1.8065138641580993
O	-0.348245530936771	1.0584079006082467	-0.3115216782759063
O	-0.13907313590444817	0.005110676018059135	-0.6356331043510387
O	-0.3412425045092014	-0.8044792640953928	0.952016473820629
O	1.325092712541733	-0.2608136258175447	0.28100287337326946
O	-1.1697650327441242	-0.21449306344940525	-1.0064594987327804
O	0.04875774671170123	0.17501201712976244	-0.14654626369074314
O	0.0458058135215749	0.03337565140651029	-0.03656959587014133
O	-0.0758203683911985	-0.27447263986030446	-0.43919654928108326
N	0.9631633180861577	0.21696292048076168	1.8995909012305763
H	0.705670040669377	0.23559428061749862	1.5218458966968398
H	0.8590164080043982	0.398898563347623	1.48074677446105
H	0.740801243042652	0.4018286280826666	1.6808492800649877
H	-0.7161618553174585	-0.010915937682448862	-1.8409623921310339
H	-0.7778963325250824	-0.01706227759012592	-1.771241848740098
H	-0.5053037777330154	-0.008819226108096365	-1.4698044024154997
H	-0.382907370158884	-0.6869702825955168	0.7808317990048658
H	-0.20889036659624094	1.060446044335473	-0.38483662647927275
H	-0.3944622100663618	0.978832726765843	-0.4537238859710544
H	-0.11419192419432829	-0.792641626885501	0.9423482366409738
H	1.414887840788848	-0.6042554423871523	0.9017937132778211
H	1.2747197262328964	-0.46582300407654764	0.24542537892501726
H	-0.9401672363857423	-0.27084866888073134	-0.9521189665811818
H	-1.1131628660954433	-0.32160614120506215	-1.160312742270238
H	1.0096007729143992	0.17689916870498457	2.0344045173542997
