26			 
 
S	0.44546135134061976	0.9019859100916371	0.5373395721816443
O	-0.008839849006520739	0.7129892537309964	-0.44523593434065695
O	0.9307720029597463	0.019463633474929083	-1.3543090231142678
O	0.38780630431579766	0.5012573752600289	0.32328866120184874
O	-0.7469139266016096	1.2702355808247292	-0.18305105238559788
O	-0.059519235458259795	-0.8044766104287244	-0.5976914865237446
O	-0.9350449604477588	-0.6889173940546492	-1.3028383760455686
O	0.5787434583554345	1.006612664598093	0.7570925380959722
O	0.5953941750997374	0.8767902790154651	0.6776003771854191
O	0.5172410081606217	0.5859896834561028	1.2265874536007082
N	-0.3460054857905208	-1.4458457654601222	1.3597834265261457
H	-0.2591494229969609	-1.8494215904449853	1.183870680626025
H	0.7702108912847191	-0.19540181392282902	-0.751851304329064
H	-0.13671280264764413	-1.0054680612796032	0.966381179793715
H	-0.1244726337519045	-1.1447638122623056	0.5013974846756702
H	-0.1207865341238603	-1.133836878622518	0.5270743425165287
H	0.2666165065777936	-1.186853984833334	0.6664905389172378
H	-0.27932472642823003	0.27557082736532973	-0.08689081083183918
H	0.3337007980926395	-0.08887587345466141	-1.4776433737927537
H	0.5546208387927383	0.800720659060733	-0.3422187184756493
H	-1.0025881090523516	-0.09610378996648178	-0.5384360278805563
H	-0.7431770966228889	0.2914363410722239	-0.4017975365337959
H	0.1519592286364932	2.243273210915128	-0.43183675869549837
H	0.0529537919225656	2.0460959858980172	-0.29423297965566375
H	-0.4202523713116589	-0.46358075257893866	-1.9818077088681345
H	-0.40269320104362705	-1.4288750772860868	1.4629348362202208
