26			 
 
S	0.1241911370902522	-0.08373376615977879	-0.7041499356173256
O	1.6150130510988627	1.0650369174661556	0.47258997499363314
O	0.09052303578080592	-0.6247351091313424	1.58871560865668
O	0.028700634061440612	-0.2226302852133733	-0.7242260449556006
O	-0.5860917905863545	-1.360885351346453	-0.17383377340595818
O	-0.03852132520171875	0.9354425596101965	0.5570055610788744
O	-0.022482131097761177	-0.0047382092195391995	-0.3010840069341707
O	0.08175947471392321	0.02315610348837043	-0.4633850096285378
O	-0.13597614418813783	0.5306128709201522	1.6438760523459437
O	0.22622189533896334	-0.09618045694439534	-0.7058389509877792
N	-0.7693750708586372	-0.2987345844194646	-2.188620783261484
H	-0.24555030404524708	0.7443506021286659	2.526447569791878
H	0.017944828115675965	-0.7182400855226024	1.1989819478697568
H	-0.7616894956983037	-0.1699584714442875	-2.2005315269953853
H	-0.5190720165378567	-0.3346109234289897	-2.529778176691277
H	-0.555378923134759	-0.3184079859946709	-2.493143552543283
H	0.10365579173472322	-0.541402228028746	1.80098308730443
H	0.01110468629936634	-0.7647110230599587	1.2493249876629098
H	0.10653874083226636	1.1143900800269921	1.4136855467361622
H	-0.11003272392218638	1.2609641967167318	0.9417309150996588
H	0.07876438943089197	1.0413147891018313	1.2073261146221463
H	-0.5621565982375422	-0.6318725961148974	0.19556543219339734
H	-0.7936120364994819	-1.6695394517791404	-0.13159264363639478
H	1.5266341180175094	0.6361487588169349	0.1544572914900705
H	1.7899132384547027	0.8191077389063697	-0.07752066089582835
H	-0.7010264606947744	-0.3301440900033148	-2.256985024115283
