26			 
 
S	-1.3596673081358892	-0.9723169005716626	-0.40445030406122673
O	0.760988851426903	-0.23378888418316351	-0.31451746890103177
O	0.47676603508733256	0.7859173485585997	0.5253411012337694
O	-1.128092887586276	-0.7047121562494811	-0.06464337358242857
O	0.5097590934422472	1.1878708977068675	0.19213447178602056
O	-0.03718657858721143	0.8213433006222477	-0.9551325754786272
O	1.0910764876996228	-0.2197773551379105	-0.20916504396944438
O	-1.7101935005142275	-1.3827221333967026	-0.5340022203259539
O	-1.1467969373635343	-0.6906345510069277	-0.8341288126714184
O	-1.4996754641636607	-1.0580752841765124	-0.19064759357902172
N	0.32574294712503993	-0.05073089270708469	1.2962763698497213
H	-0.5820127911172112	0.2967092952705022	0.35606044246993585
H	0.41841044939958705	0.7339043154033773	0.6052060199983084
H	0.37799555388965456	-0.17504884362761958	1.296529087156791
H	1.027239996924185	-0.670216304662123	0.6895341516256179
H	1.0314910986464758	-0.6274340994750909	0.7667003482166197
H	0.07487626575795625	0.6679034501797392	0.3568079943483965
H	0.05168066331698076	1.2669793366102153	-0.04478486131013333
H	0.8190892507940111	0.29521055908122684	0.005720848188059055
H	0.33488089555736333	-0.006720658428236173	-0.23803597038437097
H	0.17168448607199113	0.7326589723519308	-1.0118264064169555
H	0.2652643745663538	0.5906637769767102	-0.8327073911166203
H	1.0198826847662008	0.5887982473229172	-0.05398641209555367
H	-0.2534273009873308	0.1968521751025954	-0.9321159203687174
H	-1.3292509098148801	-1.4020293637439687	-0.8134847757465611
H	0.28947454400228756	0.029395752422745627	1.3433182952652354
