26			 
 
S	-0.7309846866404247	0.5255215846647807	0.698294078056602
O	0.5323982687525379	-0.2916306537123556	0.10042665273311403
O	0.46506507797512586	-0.28423986607683144	0.39556705170354256
O	-0.5151351388384668	0.4223849190292645	0.47933712086171093
O	0.246858816055476	0.012406346555661446	0.42536082334872705
O	0.26671638680121934	-0.32607437323721455	0.1514105348716001
O	0.16702291179086415	-0.12725804894286344	-0.21847862198211435
O	-0.8723421442470142	0.6686471641324355	0.9117071324863808
O	-0.5801572242267165	0.29209733671116717	0.5404787691216708
O	-0.6315149343919277	0.4734648284375022	0.5873529057596979
N	-0.19701843929650603	0.009811232520859324	-1.6609391537469553
H	-0.3065914604819974	-0.07579586334037008	-1.1372288072583274
H	0.24554812530536782	-0.19717559235222615	-0.2838335472813027
H	-0.1223747133189163	0.03742190286141869	-1.2012321053185568
H	0.21104741226154025	-0.03968946950953057	-0.6006084135293296
H	0.17777286060818845	-0.07039369163374048	-0.5580265253971728
H	0.30094227288580994	-0.1303032913138382	-0.48611235401750474
H	0.4718045613987294	-0.09518024876191654	0.4024619858906116
H	0.4768621436335384	-0.24887273593058803	0.5752876237574923
H	0.2702262035617675	-0.2784597071748347	0.5813204500020851
H	0.3885644597976596	-0.302245030690001	0.4113430456051015
H	0.21424731853010964	-0.42774411604103996	0.15905451696778716
H	0.4424912905654797	-0.19552979102133247	-0.06188599257301262
H	0.037491000069973954	0.040136910668807396	0.15731273194079995
H	-0.7144821460602225	0.5923408597810855	1.3231557590780463
H	-0.24445822241418155	0.01635939417653172	-1.691525660818271
