26			 
 
S	-0.891785063848252	-0.3946729038590743	0.2834518082865035
O	-1.063320609660661	0.006817703683300216	0.2899056186097524
O	-0.5327097667670927	0.23696509170964852	-0.02416589418778172
O	-0.7443527605927568	-0.37846394363276276	0.6081881973279233
O	-1.6189405305122615	-0.35741844358380875	0.12886988132989013
O	1.322348227727263	-0.0687008997910212	-0.46187268833270473
O	0.6774127603280209	0.9377628416917207	0.29751803365684243
O	-0.08158872034502375	-0.33297086638680135	0.7430323277547335
O	0.18807835791915026	-0.8677122906910667	0.348846902702301
O	-0.03609866430778198	-0.7656610584155422	-0.5978229397783883
N	0.3774899412908096	0.6893156487758137	-0.7026504403990003
H	0.8901454783500625	0.09935356891845626	0.9188268917487352
H	-0.034571493839214554	0.36348908282485975	-0.7822475692183706
H	0.6179614240108189	0.5055411435736429	0.08336387338925519
H	0.3461781259628405	0.6746654431943578	-0.8431437616543084
H	0.3720320007579771	0.7566609038465417	-0.702437441500144
H	0.61359043356863	0.1935318336370276	0.7878797899759388
H	-0.5716460270338077	-0.7932964349087525	-0.4612850642440111
H	0.7459681336158397	0.2231766561961078	-0.20868227779718654
H	1.326169881032324	0.1648379218700869	-0.11058209481441686
H	0.16833313592972216	-1.1320752251603559	-0.6676707757766083
H	0.7237450235102313	-0.5646750282049756	0.22680433419659346
H	0.44266319089747114	1.462447205144133	0.6879800453477101
H	-0.9160249156877613	-0.9653443522139987	0.2263018749809008
H	-2.5864418064469406	-0.3943499178696038	0.6873742380073413
H	0.2653642441046067	0.7007763192751472	-0.7557828693376601
