26			 
 
S	0.8928267614787715	0.18962517271555385	-0.07236744934911334
O	-0.03834900466074634	0.38384136878586395	0.07895263944171307
O	0.0925927709962676	0.48831599272439913	0.033074395636734505
O	0.7763104519602404	0.18919467709855464	-0.042114077736816274
O	0.1348453184060141	0.5104046955353955	-0.16071874020656574
O	-0.2714249230573572	0.3663668739642492	-0.12170644388129721
O	-0.10172762176377917	-0.04098496243568672	0.11388169091898881
O	1.2340234948812174	0.14633561194095124	-0.1014161151194048
O	0.695437582440183	0.0779786803901406	-0.0625424646672375
O	0.5943182180793432	0.02482892974689398	-0.1248068774053675
N	-1.2221824905659686	-1.3317848066983957	0.1914298040251636
H	-0.6091609281812327	-0.8787129530057308	0.041050000648243976
H	-0.37173585730038505	-0.2153851168144328	0.1478848713521466
H	-0.8879179799706362	-1.0189986966611155	0.1512384033515335
H	-0.6716001020703887	-0.42976744007351664	0.17699133574707784
H	-0.7104753337675535	-0.43272887214084804	0.17923387791934647
H	-0.2568879546340444	-0.05519081158998285	0.0021368559399082
H	0.2760318682844118	0.46972123367165836	-0.14719692645189655
H	0.14844523862993442	0.6724407243164643	-0.032612587483827886
H	0.22951770968259774	0.6283210990734388	-0.19332885864091737
H	0.17720619120549683	0.47306514331562083	-0.005665677785133626
H	-0.15067865853188567	0.25240589556628323	-0.12126997794440636
H	-0.2869151103574561	0.07508504499985	-0.05067121831763877
H	0.12438664351727861	0.26610757594397544	-0.177757359801783
H	1.4632136315210997	0.5838891813278924	0.06661874924836206
H	-1.2600999161760733	-1.3943742419063476	0.23168215070165055
