26			 
 
S	-0.5594120800654521	-0.03152661448927199	0.5903462302872905
O	-0.11430522399225146	-0.4170360591621454	0.3012660487467864
O	0.48102462190869555	0.08490887629419427	-0.1710993641472489
O	-0.567428851961381	-0.11490794024903848	0.8139187579810004
O	-0.06923924220197972	0.2182642307168095	-0.3357354631090933
O	-0.9158589796278156	0.43084210650259464	-1.3403932476836702
O	-0.11329981848133674	0.4856906455185923	-1.2123380451401695
O	-0.7675328460848765	-0.14479976781575302	0.6915752107556037
O	-0.6251979389417298	-0.14864102537962046	0.544583313801888
O	-0.49395608835413646	-0.02425603206391707	0.6424144034948891
N	1.6459260220838334	-0.2722177556647023	0.7236722864254769
H	0.3072698658012562	-0.6644751507616903	1.2588959068151027
H	1.2143901863846216	-0.2962736617132013	0.36912967707219857
H	1.3300153233374012	-0.22967525746529188	0.5562621449262037
H	0.514743533481242	0.7095726015194813	-0.43581543025475417
H	0.4864262346441134	0.6698189076462979	-0.4025555321144861
H	-0.4246806499996559	0.007302926650074058	0.5421822718534671
H	0.03838530766121119	-0.0007732862270013185	-0.3824863136505188
H	0.11246448099564316	-0.23899268442968577	-0.2576155867723965
H	-0.24996750429886405	0.049475188441729816	-1.0493391252185007
H	-0.29063490733440245	0.19932898812812408	-1.1452613856870577
H	-0.9551013505403089	0.3411779711514002	-1.2865859411919311
H	-0.8034564005689854	0.33494627191850984	-0.9495263724264756
H	-0.4078013767745804	0.0009203228813879985	0.2518467924585592
H	-0.488316139346952	-0.6436794668006878	0.8851761371072362
H	1.7155438224350605	-0.3049943352237243	0.7974826257266536
