26			 
 
S	-0.39489543176295105	-0.19270382747873366	0.3746759834043023
O	0.00304683434535144	-1.267208946750088	1.1069915268306203
O	0.15731082174108718	0.3039480678298536	-1.7683494831553173
O	-0.30131515945355397	-0.26087057196311997	0.3717672643312603
O	0.021565786608030546	0.6982493557057738	1.5871597804538298
O	0.08347072575743099	-0.6908348062766854	-1.201523932166349
O	-0.27345985710436244	-0.10420941935556624	0.40131772430736223
O	-0.4698414028280799	-0.23510377775766916	0.12056958616471657
O	-0.2531046316625471	-0.007922259569885723	0.07563791377244398
O	-0.4159984517492144	-0.333930908660538	1.6265144939476461
N	0.5744988976549132	1.1947789732564809	-1.205824614848802
H	0.5786386658179945	1.1963582660333296	-1.0948957427382076
H	0.4564536905771255	0.9760089946109541	-1.4132423212676968
H	0.379143918841232	0.6515392465359083	-1.8538342026208674
H	-0.34474369621801226	-0.45931724117271755	1.6773427766698967
H	-0.3509577288836537	-0.4305142362332008	1.7230987541819553
H	-0.1011290968098055	-0.21125958094233	1.6173568272222916
H	-0.030261220527196347	0.8848988560774381	1.767054332437029
H	0.058094851853485285	-0.10281454960236211	-2.020263618211099
H	-0.028999929353890848	0.3303349506720459	-1.6679580763691642
H	0.2071210704250117	0.6232930769441536	1.2447017276900993
H	0.09763290177043156	-0.5952819165181285	-0.9918996211460415
H	0.2724234291997437	-1.008402157051192	-1.1434476244635297
H	-0.11562722171540034	-1.0078272426803334	0.9668626339805239
H	-0.3830928741820519	-1.207511187896886	0.9065807942360418
H	0.5740251075342393	1.2563028425532043	-1.206392882316633
