26			 
 
S	0.36735407014916316	0.9121818571307899	0.5935242210585046
O	-0.08935505168720381	-1.2231250181767648	0.500919531639955
O	-1.3224902646819374	-1.0536873495208143	0.6768943500505394
O	0.4073079742382086	0.8052152238499833	0.22419424239039248
O	-0.6867359006868958	-0.34804511457226045	-1.1929493124087767
O	0.022865271869533497	-1.083219876694672	-0.7142738528445032
O	-1.1897887471896351	-0.6719102889814389	-0.1352225162808729
O	0.7589157194784378	1.4499209619247473	0.7920469642292185
O	0.23991850974018003	0.4298611636968579	0.7169990101961513
O	0.12131361313833271	0.6557610435161797	0.49403773460481754
N	1.5779482110758174	1.8147350773644668	-0.3272221753028157
H	1.5291747930080857	1.7429450043569972	-0.29106244564384104
H	-0.617595986694252	-0.4580363141860959	0.883706683462801
H	1.6232721302249793	1.7043893370067889	-0.30341859369136853
H	-1.1856559259253125	-0.5512998267316589	-0.2777170404204246
H	-1.2675468233957656	-0.6260992858711507	-0.31621622071111244
H	-0.9553743252487077	-0.5672496726361408	-0.4232177051718339
H	-0.6965788692756387	-0.5964522125902806	-1.1376335047806896
H	-0.8832013385284	-0.8161045227504017	0.5775347646343695
H	-0.7111513360980087	-0.6450358047441648	-0.7596561082918224
H	-0.007954183763367387	-0.8224277122201298	-0.8025475848698943
H	0.10595736216996739	-1.1325969882653366	-0.6289277580796333
H	-0.02662394845289221	-1.3529915977797013	0.5106546491712847
H	0.25019247569137737	-0.9841730544140407	0.6966622729459655
H	0.9222006409974729	1.5537395466443165	0.9822382644571233
H	1.7136319298347948	1.8637054245469278	-0.339347869805247
